test/data_tests/mod_ren14.raw
0,   100.00,  32, 0, 1, 60.00     / PSS(R)E 32 RAW created by rawd32  THU, SEP 23 2021  17:28
 10/03/09 PSAT ARCHIVE         100.00 2009 W
 14-BUS 20-LINE SYSTEM
     1,' BUS 01     ',  69.0000,3,   1,   1,   1,1.04500,   1.0000
     2,' BUS 02_SYNC',  69.0000,2,   1,   1,   1,1.04000,   0.3747
     3,' BUS 02_REN ',  69.0000,2,   1,   1,   1,1.04000,   0.0539
     4,' BUS 03_SYNC',  69.0000,2,   1,   1,   1,1.03000,  -2.5127
     5,' BUS 03_REN ',  69.0000,2,   1,   1,   1,1.03200,  -2.2375
     6,' BUS 04     ',  69.0000,1,   1,   1,   1,1.01226,  -1.4874
     7,' BUS 05     ',  69.0000,1,   1,   1,   1,1.01713,  -1.1135
     8,' BUS 06     ',  13.8000,2,   1,   1,   1,1.03000,  -0.9389
     9,' BUS 07     ',  13.8000,1,   1,   1,   1,1.01594,   0.0217
    10,' BUS 08     ',  18.0000,2,   1,   1,   1,1.03000,   4.8498
    11,' BUS 09     ',  13.8000,1,   1,   1,   1,1.00039,  -2.2586
    12,' BUS 10     ',  13.8000,1,   1,   1,   1,0.99763,  -2.3321
    13,' BUS 11     ',  13.8000,1,   1,   1,   1,1.00977,  -1.7713
    14,' BUS 12     ',  13.8000,1,   1,   1,   1,1.01375,  -1.8985
    15,' BUS 13     ',  13.8000,1,   1,   1,   1,1.00756,  -2.0075
    16,' BUS 14     ',  13.8000,1,   1,   1,   1,0.98473,  -3.2397
 0 /End of Bus data, Begin Load data
     2,'1 ',1,   1,   1,     0.000,     0.000,     0.000,     0.000,    20.063,   -11.742,   1,1
     4,'1 ',1,   1,   1,     0.000,     0.000,     0.000,     0.000,    88.793,   -17.909,   1,1
     6,'1 ',1,   1,   1,     0.000,     0.000,     0.000,     0.000,    46.574,     0.000,   1,1
     7,'1 ',1,   1,   1,     0.000,     0.000,     0.000,     0.000,     7.325,    -1.542,   1,1
     8,'1 ',1,   1,   1,     0.000,     0.000,     0.000,     0.000,    10.557,    -7.069,   1,1
    11,'1 ',1,   1,   1,     0.000,     0.000,     0.000,     0.000,    29.500,   -16.600,   1,1
    12,'1 ',1,   1,   1,     0.000,     0.000,     0.000,     0.000,     9.052,    -5.834,   1,1
    13,'1 ',1,   1,   1,     0.000,     0.000,     0.000,     0.000,     3.436,    -1.767,   1,1
    14,'1 ',1,   1,   1,     0.000,     0.000,     0.000,     0.000,     5.880,    -1.542,   1,1
    15,'1 ',1,   1,   1,     0.000,     0.000,     0.000,     0.000,    12.976,    -5.575,   1,1
    16,'1 ',1,   1,   1,     0.000,     0.000,     0.000,     0.000,    15.215,    -5.106,   1,1
 0 /End of Load data, Begin Fixed shunt data
 0 /End of Fixed shunt data, Begin Generator data
     1,'1 ',    40.411,     5.194,  1000.000, -1000.000,1.04500,     0,   100.000, 0.00000E+0, 2.30000E-1, 0.00000E+0, 0.00000E+0,1.00000,1,  100.0,  9999.000, -9999.000,   1,1.0000
     2,'1 ',    30.000,     1.145,    50.000,   -40.000,1.04000,     0,   100.000, 0.00000E+0, 1.30000E-1, 0.00000E+0, 0.00000E+0,1.00000,1,  100.0,  9999.000, -9999.000,   1,1.0000
     3,'1 ',    30.000,    19.745,    50.000,   -50.000,1.04000,     0,   100.000, 0.00000E+0, 9.99900E+3, 0.00000E+0, 0.00000E+0,1.00000,1,  100.0,  9999.000, -9999.000,   1,1.0000,    ,      ,    ,      ,    ,      ,1, 1.0000
     4,'1 ',    30.000,    27.591,    50.000,   -60.000,1.03000,     0,   100.000, 0.00000E+0, 1.30000E-1, 0.00000E+0, 0.00000E+0,1.00000,1,  100.0,  9999.000, -9999.000,   1,1.0000
     5,'1 ',    30.000,     0.386,    20.000,   -20.000,1.03200,     0,   100.000, 0.00000E+0, 9.99900E+3, 0.00000E+0, 0.00000E+0,1.00000,1,  100.0,  9999.000, -9999.000,   1,1.0000,    ,      ,    ,      ,    ,      ,1, 1.0000
     8,'1 ',    30.000,    -0.621,    24.000,    -6.000,1.03000,     0,    50.000, 0.00000E+0, 1.20000E-1, 0.00000E+0, 0.00000E+0,1.00000,1,  100.0,  9999.000, -9999.000,   1,1.0000
     8,'2 ',    20.000,    -0.414,    24.000,    -6.000,1.03000,     0,    50.000, 0.00000E+0, 9.99900E+3, 0.00000E+0, 0.00000E+0,1.00000,1,  100.0,  9999.000, -9999.000,   1,1.0000,    ,      ,    ,      ,    ,      ,1, 1.0000
    10,'1 ',    30.000,     6.196,    24.000,    -6.000,1.03000,     0,    50.000, 0.00000E+0, 1.20000E-1, 0.00000E+0, 0.00000E+0,1.00000,1,  100.0,  9999.000, -9999.000,   1,1.0000
    10,'2 ',    20.000,     4.131,     5.000,    -5.000,1.03000,     0,    50.000, 0.00000E+0, 9.99900E+3, 0.00000E+0, 0.00000E+0,1.00000,1,  100.0,  9999.000, -9999.000,   1,1.0000,    ,      ,    ,      ,    ,      ,1, 1.0000
    15,'1 ',    15.000,     0.000,     5.000,    -5.000,1.03000,     0,    50.000, 0.00000E+0, 9.99900E+3, 0.00000E+0, 0.00000E+0,1.00000,1,  100.0,  9999.000, -9999.000,   1,1.0000,    ,      ,    ,      ,    ,      ,1, 1.0000
 0 /End of Generator data, Begin Branch data
     1,      2,'1 ', 1.93800E-2, 5.91700E-2,   0.05280,    0.00,    0.00,    0.00,  0.00000,  0.00000,  0.00000,  0.00000,1,1,   0.00,   1,1.0000
     1,      7,'1 ', 5.40300E-2, 2.23040E-1,   0.04920,    0.00,    0.00,    0.00,  0.00000,  0.00000,  0.00000,  0.00000,1,1,   0.00,   1,1.0000
     2,      3,'1 ', 4.69900E-3, 1.97970E-2,   0.00000,    0.00,    0.00,    0.00,  0.00000,  0.00000,  0.00000,  0.00000,1,2,   0.00,   1,1.0000
     3,      4,'1 ', 4.69900E-2, 1.97970E-1,   0.04380,    0.00,    0.00,    0.00,  0.00000,  0.00000,  0.00000,  0.00000,1,2,   0.00,   1,1.0000
     3,      6,'1 ', 5.81100E-2, 1.76320E-1,   0.03740,    0.00,    0.00,    0.00,  0.00000,  0.00000,  0.00000,  0.00000,1,1,   0.00,   1,1.0000
     3,      7,'1 ', 5.69500E-2, 1.73880E-1,   0.03400,    0.00,    0.00,    0.00,  0.00000,  0.00000,  0.00000,  0.00000,1,1,   0.00,   1,1.0000
     4,      5,'1 ', 6.70100E-3, 1.71030E-2,   0.00000,    0.00,    0.00,    0.00,  0.00000,  0.00000,  0.00000,  0.00000,1,1,   0.00,   1,1.0000
     5,      6,'1 ', 6.70100E-2, 1.71030E-1,   0.03460,    0.00,    0.00,    0.00,  0.00000,  0.00000,  0.00000,  0.00000,1,1,   0.00,   1,1.0000
     6,      7,'1 ', 1.33500E-2, 4.21100E-2,   0.01280,    0.00,    0.00,    0.00,  0.00000,  0.00000,  0.00000,  0.00000,1,2,   0.00,   1,1.0000
     8,     13,'1 ', 9.49800E-2, 1.98900E-1,   0.00000,    0.00,    0.00,    0.00,  0.00000,  0.00000,  0.00000,  0.00000,1,1,   0.00,   1,1.0000
     8,     14,'1 ', 1.22910E-1, 2.55810E-1,   0.00000,    0.00,    0.00,    0.00,  0.00000,  0.00000,  0.00000,  0.00000,1,1,   0.00,   1,1.0000
     8,     15,'1 ', 6.61500E-2, 1.30270E-1,   0.00000,    0.00,    0.00,    0.00,  0.00000,  0.00000,  0.00000,  0.00000,1,1,   0.00,   1,1.0000
     9,     11,'1 ',-0.00000E+0, 1.10010E-1,   0.00000,    0.00,    0.00,    0.00,  0.00000,  0.00000,  0.00000,  0.00000,1,1,   0.00,   1,1.0000
    11,     12,'1 ', 3.18100E-2, 8.45000E-2,   0.00000,    0.00,    0.00,    0.00,  0.00000,  0.00000,  0.00000,  0.00000,1,1,   0.00,   1,1.0000
    11,     16,'1 ', 1.27110E-1, 2.70380E-1,   0.00000,    0.00,    0.00,    0.00,  0.00000,  0.00000,  0.00000,  0.00000,1,1,   0.00,   1,1.0000
    12,     13,'1 ', 8.20500E-2, 1.92070E-1,   0.00000,    0.00,    0.00,    0.00,  0.00000,  0.00000,  0.00000,  0.00000,1,2,   0.00,   1,1.0000
    14,     15,'1 ', 2.20920E-1, 1.99880E-1,   0.00000,    0.00,    0.00,    0.00,  0.00000,  0.00000,  0.00000,  0.00000,1,1,   0.00,   1,1.0000
    15,     16,'1 ', 1.70930E-1, 3.48020E-1,   0.00000,    0.00,    0.00,    0.00,  0.00000,  0.00000,  0.00000,  0.00000,1,2,   0.00,   1,1.0000
 0 /End of Branch data, Begin Transformer data
     6,     9,     0,'1 ',1,1,1, 0.00000E+0, 0.00000E+0,2,'                                        ',1,   1,1.0000
 0.00000E+0, 2.09120E-1,   100.00
0.97800,   0.000,   0.000,     0.00,     0.00,     0.00, 0,      0, 1.10000, 0.90000, 1.10000, 0.90000, 999, 0, 0.00000, 0.00000,  0.000
1.00000,   0.000
     6,    11,     0,'1 ',1,1,1, 0.00000E+0, 0.00000E+0,2,'                                        ',1,   1,1.0000
 0.00000E+0, 5.56180E-1,   100.00
0.96900,   0.000,   0.000,     0.00,     0.00,     0.00, 0,      0, 1.10000, 0.90000, 1.10000, 0.90000, 999, 0, 0.00000, 0.00000,  0.000
1.00000,   0.000
     7,     8,     0,'1 ',1,1,1, 0.00000E+0, 0.00000E+0,2,'                                        ',1,   1,1.0000
 0.00000E+0, 2.52020E-1,   100.00
0.93200,   0.000,   0.000,     0.00,     0.00,     0.00, 0,      0, 1.10000, 0.90000, 1.10000, 0.90000, 999, 0, 0.00000, 0.00000,  0.000
1.00000,   0.000
    10,     9,     0,'1 ',1,1,1, 0.00000E+0, 0.00000E+0,2,'                                        ',1,   1,1.0000
 0.00000E+0, 1.76150E-1,   100.00
1.00000,   0.000,   0.000,     0.00,     0.00,     0.00, 0,      0, 1.10000, 0.90000, 1.10000, 0.90000, 999, 0, 0.00000, 0.00000,  0.000
1.00000,   0.000
 0 /End of Transformer data, Begin Area interchange data
   1,     1,     0.000,   999.990,'14BUS       '
 0 /End of Area interchange data, Begin Two-terminal dc line data
 0 /End of Two-terminal dc line data, Begin VSC dc line data
 0 /End of VSC dc line data, Begin Impedance correction table data
 0 /End of Impedance correction table data, Begin Multi-terminal dc line data
 0 /End of Multi-terminal dc line data, Begin Multi-section line data
 0 /End of Multi-section line data, Begin Zone data
   1,'14-BUS      '
 0 /End of Zone data, Begin Inter-area transfer data
 0 /End of Inter-area transfer data, Begin Owner data
 0 /End of Owner data, Begin FACTS device data
 0 /End of FACTS device data, Begin Switched shunt data
 0 /End of Switched shunt data, Begin GNE device data
 0 /End of GNE device data
Q
